[General]
ned-path = .;../queueinglib
network = truncation
cmdenv-config-name = truncation
qtenv-default-config = truncation
repeat = 5
sim-time-limit = 10000s
**.vector-recording = false

[Config truncation]
**.srv.queueLength.result-recording-modes = +histogram
**.lowLoadSrc.queueLength.result-recording-modes = +histogram
**.sink.lifeTime.result-recording-modes = +histogram

[Config truncation-001]
extends=truncation
**.delta = 0.01
[Config truncation-005]
extends=truncation
**.delta = 0.05
[Config truncation-010]
extends=truncation
**.delta = 0.1
[Config truncation-050]
extends=truncation
**.delta = 0.5
[Config truncation-100]
extends=truncation
**.delta = 1
